
     RDKit          3D

 43 44  0  0  0  0  0  0  0  0999 V2000
    2.3276    0.8675    2.0207 O   0  0  0  0  0  0  0  0  0  0  0  0
    3.0508    0.2901    1.2264 C   0  0  0  0  0  0  0  0  0  0  0  0
    3.6617   -0.8573    1.5746 O   0  0  0  0  0  0  0  0  0  0  0  0
    3.3023    0.7047   -0.2037 C   0  0  0  0  0  0  0  0  0  0  0  0
    4.7998    0.7838   -0.5118 C   0  0  0  0  0  0  0  0  0  0  0  0
    5.6390    2.1121    0.4106 S   0  0  0  0  0  0  0  0  0  0  0  0
    2.6102   -0.2851   -1.1514 C   0  0  0  0  0  0  0  0  0  0  0  0
    1.1077   -0.0661   -1.1016 C   0  0  0  0  0  0  0  0  0  0  0  0
    0.6235    0.8317   -1.7893 O   0  0  0  0  0  0  0  0  0  0  0  0
    0.3609   -0.8250   -0.2147 N   0  0  0  0  0  0  0  0  0  0  0  0
   -1.0675   -0.5294    0.0338 C   0  0  0  0  0  0  0  0  0  0  0  0
   -1.3783    0.9633    0.3212 C   0  0  0  0  0  0  0  0  0  0  0  0
   -2.8374    1.2278    0.6240 C   0  0  0  0  0  0  0  0  0  0  0  0
   -3.8049    1.0962   -0.3819 C   0  0  0  0  0  0  0  0  0  0  0  0
   -5.1523    1.3254   -0.1009 C   0  0  0  0  0  0  0  0  0  0  0  0
   -5.5447    1.6917    1.1850 C   0  0  0  0  0  0  0  0  0  0  0  0
   -4.5899    1.8336    2.1901 C   0  0  0  0  0  0  0  0  0  0  0  0
   -3.2415    1.6051    1.9117 C   0  0  0  0  0  0  0  0  0  0  0  0
   -1.5009   -1.3762    1.2431 C   0  0  0  0  0  0  0  0  0  0  0  0
   -0.4805   -2.8633    1.2554 S   0  0  0  0  0  0  0  0  0  0  0  0
    0.7045   -2.2251    0.0390 C   0  0  0  0  0  0  0  0  0  0  0  0
    0.5726   -3.0838   -1.2358 C   0  0  0  0  0  0  0  0  0  0  0  0
   -0.2741   -2.9892   -2.1113 O   0  0  0  0  0  0  0  0  0  0  0  0
    1.5336   -4.0308   -1.3311 O   0  0  0  0  0  0  0  0  0  0  0  0
    3.4435   -0.9641    2.5266 H   0  0  0  0  0  0  0  0  0  0  0  0
    2.8577    1.7005   -0.3364 H   0  0  0  0  0  0  0  0  0  0  0  0
    5.3076   -0.1589   -0.2824 H   0  0  0  0  0  0  0  0  0  0  0  0
    4.9555    0.9881   -1.5765 H   0  0  0  0  0  0  0  0  0  0  0  0
    4.9512    3.1364   -0.1181 H   0  0  0  0  0  0  0  0  0  0  0  0
    2.8961   -1.3182   -0.9481 H   0  0  0  0  0  0  0  0  0  0  0  0
    2.9162   -0.0949   -2.1886 H   0  0  0  0  0  0  0  0  0  0  0  0
   -1.6149   -0.8540   -0.8612 H   0  0  0  0  0  0  0  0  0  0  0  0
   -0.7503    1.3152    1.1505 H   0  0  0  0  0  0  0  0  0  0  0  0
   -1.1195    1.6016   -0.5287 H   0  0  0  0  0  0  0  0  0  0  0  0
   -3.5131    0.8212   -1.3937 H   0  0  0  0  0  0  0  0  0  0  0  0
   -5.8954    1.2227   -0.8874 H   0  0  0  0  0  0  0  0  0  0  0  0
   -6.5940    1.8728    1.4022 H   0  0  0  0  0  0  0  0  0  0  0  0
   -4.8952    2.1263    3.1914 H   0  0  0  0  0  0  0  0  0  0  0  0
   -2.5092    1.7255    2.7073 H   0  0  0  0  0  0  0  0  0  0  0  0
   -1.3109   -0.8555    2.1877 H   0  0  0  0  0  0  0  0  0  0  0  0
   -2.5624   -1.6374    1.2007 H   0  0  0  0  0  0  0  0  0  0  0  0
    1.7159   -2.3044    0.4403 H   0  0  0  0  0  0  0  0  0  0  0  0
    1.2992   -4.5248   -2.1464 H   0  0  0  0  0  0  0  0  0  0  0  0
  1  2  2  0
  2  3  1  0
  2  4  1  0
  4  5  1  0
  5  6  1  0
  4  7  1  0
  7  8  1  0
  8  9  2  0
  8 10  1  0
 10 11  1  0
 11 12  1  0
 12 13  1  0
 13 14  2  0
 14 15  1  0
 15 16  2  0
 16 17  1  0
 17 18  2  0
 11 19  1  0
 19 20  1  0
 20 21  1  0
 21 22  1  0
 22 23  2  0
 22 24  1  0
 21 10  1  0
 18 13  1  0
  3 25  1  0
  4 26  1  0
  5 27  1  0
  5 28  1  0
  6 29  1  0
  7 30  1  0
  7 31  1  0
 11 32  1  0
 12 33  1  0
 12 34  1  0
 14 35  1  0
 15 36  1  0
 16 37  1  0
 17 38  1  0
 18 39  1  0
 19 40  1  0
 19 41  1  0
 21 42  1  0
 24 43  1  0
M  END
$$$$
